/*--------------------------------*- C++ -*----------------------------------*\
| =========                 |                                                 |
| \\      /  F ield         | OpenFOAM: The Open Source CFD Toolbox           |
|  \\    /   O peration     | Version:  v2106                                 |
|   \\  /    A nd           | Website:  www.openfoam.com                      |
|    \\/     M anipulation  |                                                 |
\*---------------------------------------------------------------------------*/
FoamFile
{
    version     2.0;
    format      ascii;
    class       dictionary;
    object      topoSetDict;
}
// * * * * * * * * * * * * * * * * * * * * * * * * * * * * * * * * * * * * * //

actions
(
    {
        name    cylinder;
        type    faceSet;
        action  new;
        source  patchToFace;
	sourceInfo
	{
	   patch cylinder;
	}
    }


    {
        name    bottom_patch_negative;
        type    faceSet;
        action  new;
        source  boxToFace;
	sourceInfo
	{
	   box (-0.1 -0.1 0.001) (0.9 0.9 41);
	}
    }


    {
        name    top_patch_negative;
        type    faceSet;
        action  new;
        source  boxToFace;
	sourceInfo
	{
	   box (-0.1 -0.1 -1.0) (0.9 0.9 39.999);
	}
    } 

// new faceSet

    {
        name    bottomPatch;
        type    faceSet;
        action  new;
        source  faceToFace;
	sourceInfo
	{
	   set cylinder;
	}
    }


    {
        name    bottomPatch;
        type    faceSet;
        action  delete;
        source  faceToFace;
	sourceInfo
	{
	   set bottom_patch_negative;
	}
    }

// new faceSet no.2

    {
        name    topPatch;
        type    faceSet;
        action  new;
        source  faceToFace;
	sourceInfo
	{
	   set cylinder;
	}
    }


    {
        name    topPatch;
        type    faceSet;
        action  delete;
        source  faceToFace;
	sourceInfo
	{
	   set top_patch_negative;
	}
    }

// new faceSet no.3


    {
        name    wall;
        type    faceSet;
        action  new;
        source  faceToFace;
	sourceInfo
	{
	   set cylinder;
	}
    }


    {
        name    wall;
        type    faceSet;
        action  delete;
        source  faceToFace;
	sourceInfo
	{
	   set bottomPatch;
	}
    }


    {
        name    wall;
        type    faceSet;
        action  delete;
        source  faceToFace;
	sourceInfo
	{
	   set topPatch;
	}
    }



);



// ************************************************************************* //
